/*
               Банковская интегрированная система БИСквит
    Copyright: (C) 1992-2017 ЗАО "Банковские информационные системы"
     Filename: PP-ITAX.P
      Comment: Импорт файлов решений о блокировке/разблокировке счетов
   Parameters: NO-PARAMETRS
      Created: 16.04.2009 15:33 Vasov   
     Modified: 16.04.2009 15:33 Vasov   
     Modified: 12/05/2009 kraw (0103135) TAXBlockAcct, TAXUnblockAcct
     Modified: 24/07/2009 kraw (0114610) в блокировку СумВзыск с обратным знаком
     Modified: 20/10/2009 kraw (0118788) валютный счет - сумма по курсу
*/

&GLOBAL-DEFINE NO-BASE-PROC YES

{globals.i}             /* Глобальные переменные сессии. */
&GLOBAL-DEFINE ExtBase      YES
&IF DEFINED(ExtBase) &THEN
{extexch.def} /* Содержит описание временной таблицы ttExtAcct */
{intrface.get plbnk} 
&ENDIF

{form.def}
{tmprecid.def}
{sh-defs.i}
{g-trans.equ}
{exchange.equ}

{intrface.get tmess} 
{intrface.get strng}
{intrface.get exch}
{intrface.get trans}
{intrface.get xclass} 
{intrface.get pack} 
{intrface.get filex}
{intrface.get cust}
{intrface.get instrum}

{intrface.get pack}
{intrface.get rfrnc}

{intrface.get data}
{intrface.get pbase}
{intrface.get db2l}
{intrface.get acct}
{intrface.get blkob}
{ttretval.def}

{pfuncdef
   &LIBDEF        = "YES"
   &NAME          = "ITAX"
   &LIBNAME       = "Библиотека парсера TAX"
   &DESCRIPTION   = "Работа с данными TAX"
   }

DEFINE VARIABLE mSpooling  AS LOGICAL   NO-UNDO.
DEFINE VARIABLE mTagCount  AS INT64     NO-UNDO.
DEFINE STREAM   sImport.

DEFINE VARIABLE mCount     AS INT64     NO-UNDO.
DEFINE VARIABLE mCountProc AS INT64     NO-UNDO.
DEFINE VARIABLE mResult    AS CHARACTER NO-UNDO.
DEFINE VARIABLE mSummVZ    AS DECIMAL   NO-UNDO.
DEFINE VARIABLE mReqTrans  AS CHARACTER NO-UNDO.
DEFINE VARIABLE mAnsTrans  AS CHARACTER NO-UNDO.
DEFINE VARIABLE oOp        AS INT64     NO-UNDO.
DEFINE VARIABLE mMess      AS CHARACTER NO-UNDO.
DEFINE VARIABLE mFile1     AS CHARACTER NO-UNDO.
DEFINE VARIABLE mCountAll  AS INT64     NO-UNDO.
DEFINE VARIABLE mRetryError AS CHAR      NO-UNDO.

DEFINE VARIABLE oCustCat  AS CHARACTER  NO-UNDO.
DEFINE VARIABLE oCustId   AS INT64      NO-UNDO.

DEFINE VARIABLE mSuperPacketID   AS INT64      NO-UNDO.

DEFINE VARIABLE m365_Join      AS CHARACTER NO-UNDO.
DEFINE VARIABLE m365_BalAcct   AS CHARACTER NO-UNDO.
DEFINE VARIABLE m365_Contract  AS CHARACTER NO-UNDO.
DEFINE VARIABLE m365_RValBlk   AS CHARACTER NO-UNDO.
DEFINE VARIABLE mDSD_365       AS CHARACTER NO-UNDO.
DEFINE VARIABLE mVBO_365       AS CHARACTER NO-UNDO.
DEFINE VARIABLE mPrArch_365    AS CHARACTER NO-UNDO.
DEFINE VARIABLE mArchSr_365    AS CHARACTER NO-UNDO.
DEFINE VARIABLE mMnozhC_365    AS CHARACTER NO-UNDO.
DEFINE VARIABLE mIgnorKPP_365  AS CHARACTER NO-UNDO.
DEFINE VARIABLE mAllFil_365    AS CHARACTER NO-UNDO.
DEFINE VARIABLE mKontrDP_365   AS CHARACTER NO-UNDO.
DEFINE VARIABLE mKontrOP_365   AS CHARACTER NO-UNDO.
DEFINE VARIABLE mKolDoc_365    AS CHARACTER NO-UNDO.
DEFINE VARIABLE mTipeOst_365   AS CHARACTER NO-UNDO.
DEFINE VARIABLE mProvOvrd_365  AS CHARACTER NO-UNDO.
DEFINE VARIABLE mZamRVSO_365   AS CHARACTER NO-UNDO.
DEFINE VARIABLE mShift_365     AS CHARACTER NO-UNDO.

DEFINE VARIABLE mINN           AS CHARACTER NO-UNDO.
DEFINE VARIABLE mKPP           AS CHARACTER NO-UNDO.
DEFINE VARIABLE mMFO           AS CHARACTER NO-UNDO.
DEFINE VARIABLE mBank          AS CHARACTER NO-UNDO.
DEFINE VARIABLE mNCCode        AS CHARACTER NO-UNDO.
DEFINE VARIABLE mNaznSchKas    AS CHARACTER NO-UNDO.
DEFINE VARIABLE mNaznSchMBR    AS CHARACTER NO-UNDO.
DEFINE VARIABLE mDate_NR       AS CHARACTER NO-UNDO.
DEFINE VARIABLE mKorrACCT      AS CHARACTER NO-UNDO.
DEFINE VARIABLE mAcNSpis       AS CHARACTER NO-UNDO.
DEFINE VARIABLE mParSchStN     AS CHARACTER NO-UNDO.

m365_Join     = FGetSetting("Настройка_365П", "Объединять", "И").
m365_BalAcct  = FGetSetting("Настройка_365П", "ИсклБС",     "").
m365_Contract = FGetSetting("Настройка_365П", "ИсклНазн",   "").
m365_RValBlk  = FGetSetting("Настройка_365П", "ОкрВалБлок", "Нет").

DEFINE TEMP-TABLE ttBlockAcct
   FIELD num           AS INT64
   FIELD acct          AS CHARACTER
   FIELD currency      AS CHARACTER
   FIELD cont-name     AS CHARACTER
   FIELD acct-status   AS CHARACTER
   FIELD msg           AS CHARACTER
   FIELD error-code    AS CHARACTER
   FIELD type          AS CHARACTER
   FIELD open-date     AS CHARACTER
   FIELD close-date     AS CHARACTER
.

DEFINE TEMP-TABLE ttLevel
   FIELD Fmt   AS CHARACTER
   FIELD Level AS INT64
   FIELD Point AS INT64
   FIELD Kind  AS CHARACTER.

DEFINE TEMP-TABLE ttKvt  NO-UNDO
   FIELD AttrCode   AS CHARACTER
   FIELD AttrValue  AS CHARACTER.

DEFINE VARIABLE oHTable2 AS HANDLE      NO-UNDO. /* исходящие счета*/
DEFINE VARIABLE oHTable3 AS HANDLE      NO-UNDO. /* исходящие документы*/

DEFINE VARIABLE mRsSrv  AS CHARACTER NO-UNDO.
DEFINE VARIABLE mRsInf  AS CHARACTER NO-UNDO.
DEFINE VARIABLE mRsAcc  AS CHARACTER NO-UNDO.
DEFINE VARIABLE mRsDoc  AS CHARACTER NO-UNDO.

DEFINE STREAM sReq.

{365p.def}
{core365p.pro}
{spec365p.pro}
/*{core440p.pro}*/
/*{spec440p.pro} нет */
{pno365p2.pro}
{zno365p2.pro}
{log365p.def}

ASSIGN
   mINN          = FGetSetting("ИНН", "", "")
   mKPP          = FGetSetting("БанкКПП", "", "")
   mMFO          = FGetSetting("БанкМФО", "", "")
   mBank         = FGetSetting("Банк", "", "") 
   mNCCode       = FGetSetting("КодНацВал0406007", "", "")
   mDSD_365      = FGetSetting("Настройка_365П","ДопСтатусыДок","")
   mVBO_365      = FGetSetting("Настройка_365П","ВычБлокОст","Нет")
   mPrArch_365   = FGetSetting("Настройка_365П", "ПровАрхив","")
   mArchSr_365   = FGetSetting("Настройка_365П", "АрхивСрок","0")
   mNaznSchKas   = FGetSetting("НазнСчКас", "", "Касса") 
   mNaznSchMBR   = FGetSetting("НазнСчМБР", "", "")   
   mMnozhC_365   = FGetSetting("Настройка_365П", "МножКл", "") 
   mIgnorKPP_365 = FGetSetting("Настройка_365П", "ИгнорКППНП", "Нет") 
   mAllFil_365   = FGetSetting("Настройка_365П", "ВсеФилиалы", "Нет") 
   mDate_NR      = FGetSetting("Дата_НР", "", "") 
   mKontrDP_365  = FGetSetting("Настройка_365П", "КонтрДатыПоруч", "")
   mKontrOP_365  = FGetSetting("Настройка_365П", "КонтрОчерПл", "*")   
   mKorrACCT     = FGetSetting("КорСч", "", "") 
   mKolDoc_365   = FGetSetting("Настройка_365П", "КолДок", "0")
   mTipeOst_365  = FGetSetting("Настройка_365П", "ТипОстатка", "")   
   mProvOvrd_365 = FGetSetting("Настройка_365П","ПровОврд","Нет")
   mZamRVSO_365  = FGetSetting("Настройка_365П","ЗамРаздВСодОпер",{&SEPARATOR-365P})
   mShift_365    = FGetSetting("Настройка_365П","Сдвиг","0")
   mAcNSpis      = FGetSetting("СчНСпис", "", "")                
   mParSchStN    = FGetSetting("Настройка_365П","ПарамСчСтНом","Счет_СтарНом")
NO-ERROR.

DEF TEMP-TABLE ttop-poruch NO-UNDO
   FIELD f1 as char column-label "Дата и время"         FORMAT "x(10)"
   FIELD f2 as char column-label "Наименование клиента" FORMAT "x(20)"
   FIELD f3 as char column-label "ИНН"                  FORMAT "x(12)"
   FIELD f4 as char column-label "Счет"                 FORMAT "x(20)"
   FIELD f5 as char column-label "Номер"                FORMAT "x(6)"
   FIELD f6 as date column-label "Дата"                 FORMAT "99/99/9999"
   FIELD f7 as dec  column-label "Сумма"                FORMAT ">>>>>>>>>>>>>>9.99"
   FIELD f8 as char column-label "Код"               FORMAT "x(10)"
   FIELD f9 as char column-label "Файл"                 FORMAT "x(20)"
   FIELD {&order-field} AS char /*для сортировки*/
.

DEF TEMP-TABLE ttop-treb NO-UNDO
   FIELD f1 as char column-label "Дата и время"         FORMAT "x(10)"
   FIELD f2 as char column-label "Наименование клиента" FORMAT "x(20)"
   FIELD f3 as char column-label "ИНН"                  FORMAT "x(12)"
   FIELD f4 as char column-label "Номер"                FORMAT "x(6)"
   FIELD f5 as date column-label "Дата"                 FORMAT "99/99/9999"
   FIELD f6 as dec  column-label "Сумма"                FORMAT ">>>>>>>>>>>>>>9.99"
   FIELD f7 as char column-label "Код"               FORMAT "x(10)"
   FIELD f8 as char column-label "Файл"                 FORMAT "x(20)"
   FIELD {&order-field} AS char /*для сортировки*/
.


DEF TEMP-TABLE ttop-zapr NO-UNDO
   FIELD f1 as char column-label "Дата и время"         FORMAT "x(10)"
   FIELD f2 as char column-label "Наименование клиента" FORMAT "x(20)"
   FIELD f3 as char column-label "ИНН"                  FORMAT "x(12)"
   FIELD f4 as char column-label "Вид запроса"          FORMAT "x(11)"
   FIELD f5 as char column-label "Код"               FORMAT "x(10)"
   FIELD f6 as char column-label "Файл"                 FORMAT "x(20)"
   FIELD {&order-field} AS char /*для сортировки*/
.

&GLOB RETRY-ERROR mRetryError

DEFINE NEW GLOBAL SHARED TEMP-TABLE tt-bv
   FIELD SeanceID  AS INT64
   FIELD ReqPackID AS INT64
   FIELD BVPart    AS CHARACTER
.

FUNCTION TAXGetFormat RETURNS LOGICAL (INPUT-OUTPUT ioFormat AS CHARACTER,
                                       INPUT-OUTPUT ioLevel  AS INT64,
                                       INPUT-OUTPUT ioPoint  AS INT64,
                                       INPUT-OUTPUT ioFooter AS CHARACTER
                                       ) FORWARD.

FUNCTION GetFmtByLev   RETURNS CHARACTER (INPUT iLevel AS INT64)  FORWARD.
FUNCTION GetExchByLev  RETURNS CHARACTER (INPUT iLevel AS INT64) FORWARD.
FUNCTION GetPntByLev   RETURNS INT64   (INPUT iLevel AS INT64) FORWARD.

{pfuncdef
   &DefLib="itax" 
   &Description="Импорт файлов решений о блокировке/разблокировке счетов"}

/*----------------------------------------------------------------------------*/
PROCEDURE ReportTextKeep: /* -0161924-- в PacketText протокол больше не пишем */
   DEFINE INPUT        PARAMETER iPacketID   AS INT64  NO-UNDO.
   DEFINE INPUT        PARAMETER iText       AS CHAR     NO-UNDO.
   DEFINE INPUT-OUTPUT PARAMETER pResult     AS CHAR     NO-UNDO.
   /* ... а пишем во временную sysconf */
   RUN SaveDataProtocol IN h_base ("PacketText_" + STRING(iPacketID), iText).
   pResult = pResult + iText.
END PROCEDURE.

FUNCTION TAXGetFormat RETURNS LOGICAL (INPUT-OUTPUT ioFormat AS CHARACTER,
                                       INPUT-OUTPUT ioLevel  AS INT64,
                                       INPUT-OUTPUT ioPoint  AS INT64,
                                       INPUT-OUTPUT ioFooter AS CHARACTER
                                       ).
   DEFINE BUFFER   bCode FOR code.
   DEFINE BUFFER   Xattr FOR Xattr.

   DEFINE VARIABLE vOK AS LOGICAL     NO-UNDO.

   &IF DEFINED (IS-DEBUG) &THEN
      RUN dbgprint.p ("TAXGetFormat", ioFormat + " " + GetNullInt(ioLevel) + " " + GetNullInt(ioPoint)).    
   &ENDIF

   IF NOT {assigned ioFormat} THEN
      RETURN NO.

   ioFooter = GetXattrInit (ioFormat, "footer__").

   IF ioPoint EQ 0 THEN
   DO:
      CREATE ttLevel.
      ASSIGN 
         ioLevel        = ioLevel + 1
         ttLevel.Fmt    = ioFormat
         ttLevel.Level  = ioLevel
      .
      &IF DEFINED (IS-DEBUG) &THEN
         RUN dbgprint.p ("TAXGetFormat","CREATE ttLevel:" + STRING (ttLevel.Level) + " " + ttLevel.Fmt + " " + STRING (ttLevel.Point)).    
      &ENDIF
   END.

   FIND FIRST bCode WHERE bCode.Class EQ "EXCH-MSG"
                      AND bCode.Code  EQ ioFormat
      NO-LOCK NO-ERROR.
   IF AVAIL bCode THEN
   DO:
      ttLevel.Kind = bCode.misc[1].
      vOK = YES.
      &IF DEFINED (IS-DEBUG) &THEN
         RUN dbgprint.p ("TAXGetFormat","RESULT:" + ioFormat + " " + STRING (ioLevel) + " " + 
                                      STRING (ioPoint) + " " + ttLevel.Kind).    
      &ENDIF
   END.
   ELSE 
   DO:
      FIND FIRST Xattr WHERE  xattr.Class-Code EQ ioFormat
                         AND (xattr.Description EQ "OBJECT" OR xattr.Description EQ "SPOOL")
                         AND (xattr.order GT ioPoint)
         NO-LOCK NO-ERROR.
      IF AVAIL Xattr THEN
      DO:
         ASSIGN
            ttLevel.Point = IF xattr.Description EQ "SPOOL" /* SPOOL будет обрабатываться корректно, */ 
                              THEN Xattr.order - 1          /* только если это последний элемент     */
                              ELSE Xattr.order
            ioPoint  = 0
            ioFormat = xattr.xattr-label
            mSpooling = (xattr.Description EQ "SPOOL")
         .
         vOK = TAXGetFormat (INPUT-OUTPUT ioFormat, 
                             INPUT-OUTPUT ioLevel, 
                             INPUT-OUTPUT ioPoint, 
                             INPUT-OUTPUT ioFooter).
      END.
      ELSE
      DO:
         vOK = NO.
         &IF DEFINED (IS-DEBUG) &THEN
            RUN dbgprint.p ("TAXGetFormat","NO RESULT").    
         &ENDIF
      END.
   END.

   RETURN vOK.

END FUNCTION.

FUNCTION GetFmtByLev RETURNS CHARACTER (INPUT iLevel AS INT64).
   FIND FIRST ttLevel WHERE ttLevel.Level EQ iLevel NO-LOCK NO-ERROR.
   IF AVAIL ttLevel 
      THEN RETURN ttLevel.Fmt.
      ELSE RETURN "".
END FUNCTION.

FUNCTION GetExchByLev RETURNS CHARACTER (INPUT iLevel AS INT64).
   FIND FIRST ttLevel WHERE ttLevel.Level EQ iLevel NO-LOCK NO-ERROR.
   IF AVAIL ttLevel 
      THEN 
      DO:
         RETURN ttLevel.Kind.
      END.
      ELSE RETURN "".
END FUNCTION.

FUNCTION GetPntByLev RETURNS INT64 (INPUT iLevel AS INT64).
   FIND FIRST ttLevel WHERE ttLevel.Level EQ iLevel NO-LOCK NO-ERROR.
   IF AVAIL ttLevel 
      THEN RETURN ttLevel.Point.
      ELSE RETURN ?.
END FUNCTION.

/*----------------------------------------------------------------------------*/
PROCEDURE TAXLoadExchFromFile.
   DEFINE INPUT  PARAMETER iFName  AS CHARACTER   NO-UNDO.
   DEFINE INPUT  PARAMETER iFormat AS CHARACTER   NO-UNDO.

   DEFINE VARIABLE vSFlag     AS LOGICAL     NO-UNDO.
   DEFINE VARIABLE vFormat    AS CHARACTER   NO-UNDO.  /* текущий формат */
   DEFINE VARIABLE vLevel     AS INT64     NO-UNDO.
   DEFINE VARIABLE vPoint     AS INT64     NO-UNDO.
   DEFINE VARIABLE vFooter    AS CHARACTER   NO-UNDO.
   DEFINE VARIABLE vBuffer    AS CHARACTER   NO-UNDO.
   DEFINE VARIABLE vParentFot AS CHARACTER   NO-UNDO.
   DEFINE VARIABLE vOK        AS LOGICAL     NO-UNDO.
   DEFINE VARIABLE vIgnore    AS LOGICAL     NO-UNDO.
   DEFINE VARIABLE vProcImp   AS CHARACTER   NO-UNDO.
   DEFINE VARIABLE vProcPrm   AS CHARACTER   NO-UNDO.
   DEFINE VARIABLE hDataExch  AS HANDLE      NO-UNDO.

   DEFINE VAR hProc  AS handle    NO-UNDO.
   DEFINE VAR vInter AS CHAR      NO-UNDO.

   DEFINE VARIABLE vFlagSet AS LOGICAL     NO-UNDO    INIT ?.

MAIN:
DO ON ERROR UNDO MAIN, RETRY MAIN:
   IF RETRY THEN DO:
      IF vSFlag THEN
         INPUT STREAM sImport CLOSE.
   END.

   {empty ttLevel}
   {empty ttBlockAcct}

   vFormat = iFormat.

   INPUT STREAM sImport FROM VALUE(iFName).
   vSFlag = YES.
   vOK = TAXGetFormat (INPUT-OUTPUT vFormat,
                       INPUT-OUTPUT vLevel,
                       INPUT-OUTPUT vPoint,
                       INPUT-OUTPUT vFooter).
   mMess = "".
   vIgnore = NO.
   REPEAT:
      IMPORT STREAM sImport UNFORMATTED vBuffer.
      IF NOT {assigned vBuffer} THEN NEXT.

      IF vIgnore THEN NEXT.
      
      mMess = mMess + (if mMess ne "" then "~n" else "") + vBuffer.
      &IF DEFINED (IS-DEBUG) &THEN
         RUN dbgprint.p ("TAXFileImport","vFormat:" + vFormat + " vLevel:" + GetNullInt(vLevel) +
                                        " vBuffer:" + vBuffer + " vFooter:" + GetNullStr(vFooter) +
                                      " mSpooling:" + STRING (mSpooling)).    
      &ENDIF

      IF vBuffer EQ vFooter THEN
      DO:
         RUN GetClassMethod IN h_xclass (vFormat,
                                         "Import",
                                         "",
                                         "",
                                         OUTPUT vProcImp,
                                         OUTPUT vProcPrm).
         &IF DEFINED (IS-DEBUG) &THEN
            RUN dbgprint.p ("TAXFileImport","vFormat:" + GetNullStr(vFormat) + 
                                          " vProcImp:" + GetNullStr(vProcImp) + 
                                            " vLevel:" + GetNullInt(vLevel)).    
         &ENDIF
         
         IF {assigned vProcImp} AND vLevel GT 1 THEN
         DO:
            hDataExch = ObjectValueHandle (GetExchByLev(vLevel)) NO-ERROR.
            IF ERROR-STATUS:ERROR OR NOT VALID-HANDLE (hDataExch) THEN
               UNDO MAIN, RETRY MAIN.
            {exch-run.i &Proc = vProcImp
                        &Parm = "vFormat, hDataExch"
                        &RunNoDef = YES}
         END.
         FIND FIRST ttLevel WHERE ttLevel.Level EQ vLevel
            EXCLUSIVE-LOCK NO-WAIT NO-ERROR. {&ON-ERROR}
         DELETE ttLevel.
         vLevel  = vLevel - 1.
         vFormat = GetFmtByLev(vLevel).
         vPoint  = GetPntByLev(vLevel).
         vOK = TAXGetFormat (INPUT-OUTPUT vFormat, 
                             INPUT-OUTPUT vLevel, 
                             INPUT-OUTPUT vPoint,
                             INPUT-OUTPUT vFooter).

         IF vLevel EQ 0 THEN /* Файл кончился */
            vIgnore = YES.

      END.
      ELSE
      DO:
         IF mSpooling THEN                      /* контроль окончания повторений */
         DO:
            vParentFot = GetXAttrInit (GetFmtByLev(vLevel - 1), "footer__").
            IF vBuffer EQ vParentFot THEN       /* хвостовик родительского блока */
            DO:
               vLevel = vLevel - 2.
               vFormat = GetFmtByLev(vLevel).
               vPoint  = GetPntByLev(vLevel).
               vOK = TAXGetFormat (INPUT-OUTPUT vFormat, 
                                   INPUT-OUTPUT vLevel, 
                                   INPUT-OUTPUT vPoint,
                                   INPUT-OUTPUT vFooter).
               mSpooling = NO. 
               NEXT.
            END.          
         END.  
         IF vLevel GT 1 THEN
         DO:
            hDataExch = ObjectValueHandle (GetExchByLev(vLevel)).
            &IF DEFINED (IS-DEBUG) &THEN
               RUN dbgprint.p ("itax.p","SET TAG " + vBuffer + " TO " + GetNullStr(hDataExch:NAME)).    
            &ENDIF            
            RUN TAXSetTag(hDataExch, vBuffer).          
         END.          
      END.

   END. /* REPEAT */
   INPUT STREAM sImport CLOSE.
   vFlagSet = YES.
END. /* MAIN */

{doreturn.i vFlagSet}
END PROCEDURE.

/*----------------------------------------------------------------------------*/

PROCEDURE TAXFileImport.
   DEFINE INPUT  PARAMETER iClass AS CHARACTER   NO-UNDO.
   DEFINE INPUT  PARAMETER hIns   AS HANDLE      NO-UNDO.

   DEFINE VARIABLE vFlagSet AS LOGICAL INIT ?  NO-UNDO.

   DEFINE VARIABLE hExch      AS HANDLE      NO-UNDO.
   DEFINE VARIABLE vPacketID  AS INT64       NO-UNDO.
   DEFINE VARIABLE vFileID    AS INT64       NO-UNDO.
   DEFINE VARIABLE vFormat    AS CHARACTER   NO-UNDO.
   DEFINE VARIABLE vProcImp   AS CHARACTER   NO-UNDO.
   DEFINE VARIABLE vProcPrm   AS CHARACTER   NO-UNDO.
   DEFINE VARIABLE mRunProc   AS CHARACTER   NO-UNDO.
   DEFINE VARIABLE vSeanceID  AS INT64       NO-UNDO.

   DEFINE VAR hProc  AS handle    NO-UNDO.
   DEFINE VAR vInter AS CHAR      NO-UNDO.

   DEFINE BUFFER FileExch FOR FileExch.
   DEFINE BUFFER Packet   FOR Packet.


MAIN:
DO ON ERROR UNDO MAIN, RETRY MAIN:
   {do-retry.i MAIN}

   ASSIGN
      hExch      = hIns:DEFAULT-BUFFER-HANDLE
      vFormat    = hExch:BUFFER-FIELD("mail-format"):BUFFER-VALUE
      vPacketID  = hExch:BUFFER-FIELD("PacketID"):BUFFER-VALUE
      vFileID    = hExch:BUFFER-FIELD("FileExchID"):BUFFER-VALUE
      vSeanceID  = hExch:BUFFER-FIELD("SeanceID"):BUFFER-VALUE
      mRunProc   = TRNSettingValue("","Run-Proc","")
      mReqTrans  = TRNSettingValue("","ReqTrans","")
      mAnsTrans  = TRNSettingValue("","AnsTrans","")
      mCount     = 0
      mCountProc = 0
      mSummVZ    = 0
   NO-ERROR. {&ON-ERROR}

   FIND FIRST Seance WHERE Seance.SeanceID EQ vSeanceID NO-LOCK NO-ERROR.
   FIND FIRST FileExch WHERE FileExch.FileExchID EQ vFileID
      NO-LOCK NO-ERROR. {&ON-ERROR}

   IF     {assigned mRunProc}
      AND mRunProc NE {&RET-ERROR}
          THEN RUN VALUE(mRunProc + ".p") (FileExch.Path) NO-ERROR.

   RUN Fill-SysMes IN h_tmess ("","","1","Импортируется файл " + FileExch.Name).

   mFile1 = FileExch.Name.

/*----------------------------------------------------------------------------*/   
   RUN TAXLoadExchFromFile(FileExch.Path, vFormat).

/*----------------------------------------------------------------------------*/
   DO TRANSACTION:
      FOR FIRST Packet WHERE Packet.PacketID EQ vPacketID EXCLUSIVE-LOCK:
         ASSIGN
            Packet.Kind  = hExch:NAME
            Packet.State = "ЗАГР".
      END.
   END.

   ASSIGN
      vFormat = hExch::mail-format.
   RUN GetClassMethod IN h_xclass (vFormat,
                                   "Import",
                                   "",
                                   "",
                                   OUTPUT vProcImp,
                                   OUTPUT vProcPrm).
   IF {assigned vProcImp} THEN
   DO:
      {exch-run.i &Proc = vProcImp
                  &Parm = "vFormat, hExch"
                  &RunNoDef = YES}
   END.

   RUN FileMoveArchive IN h_filex (vPacketID, "ImpArch") NO-ERROR.

   vFlagSet = YES.
END.

{doreturn.i vFlagSet}
END PROCEDURE.


PROCEDURE TAXSetTag.
   DEFINE INPUT  PARAMETER hExch   AS HANDLE      NO-UNDO.
   DEFINE INPUT  PARAMETER iBuffer AS CHARACTER   NO-UNDO.

   DEFINE VARIABLE hFld AS HANDLE      NO-UNDO.
   DEFINE VARIABLE vFld AS CHARACTER   NO-UNDO.
   DEFINE VARIABLE vVal AS CHARACTER   NO-UNDO.

   ASSIGN
      mTagCount = mTagCount + 1
      vFld = GetEntries (1, iBuffer, ":", "")
      vVal = TRIM (SUBSTR(iBuffer, INDEX(iBuffer, ":") + 1)).
      
   hFld = hExch:BUFFER-FIELD(GetMangledName(vFld)) NO-ERROR.
   IF NOT VALID-HANDLE (hFld) THEN
   DO:
      RUN Fill-SysMes IN h_tmess ("", "", "0", "Ошибка формата. Не найден тэг " + vFld + " в классе " + hExch:NAME).
      RETURN.
   END.

   RUN SetValue IN h_exch (hExch,
                           vFld,
                           vVal,
                           mTagCount) NO-ERROR.

END PROCEDURE.

PROCEDURE ClearExch.
   DEFINE INPUT  PARAMETER hExch AS HANDLE      NO-UNDO.
   DEFINE INPUT  PARAMETER iExc  AS CHARACTER   NO-UNDO.

   DEFINE VARIABLE hFld AS HANDLE      NO-UNDO.

   FOR EACH Xattr WHERE Xattr.Class-Code   EQ hExch:NAME
                    AND Xattr.sign-inherit EQ "С"
      NO-LOCK:
      IF CAN-DO(iExc, Xattr.Xattr-Code) THEN
         NEXT.
      hFld = hExch:BUFFER-FIELD(GetMangledName (Xattr.Xattr-Code)).
      CASE Xattr.Data-Type:
         WHEN "CHARACTER" THEN
            hFld:BUFFER-VALUE = "".
         WHEN "INTEGER" THEN
            hFld:BUFFER-VALUE = 0.
         WHEN "DECIMAL" OR
         WHEN "DATE" THEN
            hFld:BUFFER-VALUE = ?.
      END CASE.
   END.
END PROCEDURE.

PROCEDURE TAXConfirmCreate.
   DEFINE INPUT  PARAMETER iPacketID AS INT64       NO-UNDO.
   DEFINE INPUT  PARAMETER iErrCode  AS CHARACTER   NO-UNDO.
   DEFINE INPUT  PARAMETER iErrText  AS CHARACTER   NO-UNDO.
   DEFINE INPUT  PARAMETER iDateTime AS DATETIME    NO-UNDO.

   DEFINE VARIABLE vSeanceID AS INT64       NO-UNDO.
   DEFINE VARIABLE vPacketID AS INT64       NO-UNDO.
   DEFINE VARIABLE vText     AS CHARACTER   NO-UNDO.

   DEFINE VARIABLE vFlagSet AS LOGICAL     NO-UNDO    INIT ?.

   DEFINE BUFFER Packet    FOR Packet.
   DEFINE BUFFER bPack     FOR Packet.
   DEFINE BUFFER Seance    FOR Seance.
   DEFINE BUFFER mail-user FOR mail-user.
   DEFINE BUFFER FileExch  FOR FileExch.

MAIN:
DO ON ERROR UNDO MAIN, RETRY MAIN:
   {do-retry.i MAIN}

   FIND FIRST Packet WHERE Packet.PacketID EQ iPacketID
      NO-LOCK NO-ERROR. {&ON-ERROR}
   FIND FIRST Seance WHERE Seance.SeanceID EQ Packet.SeanceID
      NO-LOCK NO-ERROR. {&ON-ERROR}
   FIND FIRST mail-user WHERE mail-user.op-kind-exp EQ Seance.op-kind
                          AND mail-user.filial-id   EQ ShFilial
      NO-LOCK NO-ERROR. {&ON-ERROR}

   FIND FIRST FileExch WHERE FileExch.FileExchID EQ Packet.FileExchID
      NO-LOCK NO-ERROR. {&ON-ERROR}
   RUN PacketCreate IN h_pack (Seance.SeanceID,
                               -1,
                               mail-user.mail-user-num,
                               Packet.Kind,
                               OUTPUT vPacketID). {&ON-ERROR}
   IF NOT UpdateSigns("Packet",
                      string(vPacketID),
                      "FileName",
                      "PB" + 
                       (IF NOT {assigned iErrCode} OR iErrCode EQ "10" THEN "1"
                        ELSE "2") +  "_" +
                       ENTRY(1, GetPureName(FileExch.Name), ".") + ".txt",
                      no) THEN
      UNDO MAIN, RETRY MAIN.
   RUN PacketCreateLink (iPacketID,
                         "Packet",
                          vPacketID,
                         "TTAXConf"). {&ON-ERROR}

   iErrText = TRIM(REPLACE(REPLACE(iErrText, "~r", " "), "~n", " ")).

   vText = ENTRY(1, GetPureName(FileExch.Name), ".") + "###~n" + 
           (IF NOT {assigned iErrCode} OR iErrCode EQ "10" 
            THEN "10" 
            ELSE iErrCode + ";" + iErrText) + 
           "@@@~n"  +
           ISO-DATE(DATE(iDateTime)) + "@@@~n" +
           SUBSTR (STRING(iDateTime), 12, 8) + "@@@~n" +
           "===~n".
      RUN PacketTextSave (vPacketID, vText).
   vFlagSet = YES.
END.
{doreturn.i vFlagSet}

END PROCEDURE.
/*----------------------------------------------------------------------------*/

PROCEDURE TAXAcctBlkFileImport.
   DEFINE INPUT  PARAMETER iFormat AS CHARACTER   NO-UNDO.
   DEFINE INPUT  PARAMETER hExch    AS HANDLE      NO-UNDO.

   DEFINE VARIABLE vInfoType  AS CHARACTER   NO-UNDO.
   DEFINE VARIABLE hDataExch  AS HANDLE      NO-UNDO.
   DEFINE VARIABLE vBIK       AS CHARACTER   NO-UNDO.
   DEFINE VARIABLE vBankMFO   AS CHARACTER   NO-UNDO.
   DEFINE VARIABLE vSeanceID  AS INT64       NO-UNDO.
   DEFINE VARIABLE vBlkType   AS CHARACTER   NO-UNDO.
   DEFINE VARIABLE vUserSel   AS LOGICAL     NO-UNDO.
   DEFINE VARIABLE vStrTMP    AS CHARACTER   NO-UNDO.
   DEFINE VARIABLE vPacketID  AS INT64       NO-UNDO.
   DEFINE VARIABLE vErrCode   AS CHARACTER   NO-UNDO.
   DEFINE VARIABLE vErrClass  AS CHARACTER   NO-UNDO.
   DEFINE VARIABLE vErrText   AS CHARACTER   NO-UNDO.
   DEFINE VARIABLE vNaimNP    AS CHARACTER   NO-UNDO     EXTENT 5.
   DEFINE VARIABLE vI         AS INT64       NO-UNDO.

   DEFINE VARIABLE vFlagSet   AS LOGICAL     NO-UNDO     INIT ?.

   DEFINE BUFFER Seance FOR Seance.

MAIN:
DO ON ERROR UNDO MAIN, RETRY MAIN:
   {do-retry.i MAIN}

   ASSIGN
      vInfoType  = hExch:BUFFER-FIELD(GetMangledName("ТипИнф")):BUFFER-VALUE
      vSeanceID  = hExch:BUFFER-FIELD("SeanceID"):BUFFER-VALUE
      vPacketID  = hExch:BUFFER-FIELD("PacketID"):BUFFER-VALUE
      hDataExch  = ObjectValueHandle ("ETAXResolutn")
      vBIK       = hDataExch:BUFFER-FIELD(GetMangledName("БИК")):BUFFER-VALUE
      vBlkType   = TRNSettingValue("","BlockType","БлокСумм")
      vStrTMP    = TRNSettingValue("", "UserSelType","Да")
      vErrClass  = TRNSettingValue("", "TaxErrClass", "")
      vUserSel   = (vStrTMP EQ "да") OR (vStrTMP EQ "YES")
   .
   FIND FIRST Seance WHERE Seance.SeanceID EQ vSeanceID NO-LOCK NO-ERROR.
   IF mSummVZ GT 0 THEN
      vBlkType = "БлокСумм".
   ELSE
      vBlkType = "БлокДб".
 
   IF {assigned vErrClass} THEN DO:
      RUN TAXBlockAcctCheck(vErrClass, hDataExch, TABLE ttBlockAcct, OUTPUT vErrCode, OUTPUT vErrText).
      RUN Fill-SysMes IN h_tmess ("", "", "1", "Результат проверки данных: код " + vErrCode + ";" + vErrText).
   END.
   RUN AddAttr2TableEx IN h_trans ("", 0, -1, "", 0, "ReqType", 
                                      "NOT").
   IF vErrCode EQ "" OR             /* проверка не выполнялась */
      vErrCode EQ "10" THEN DO:     /* проверка пршла успешно */
      FOR EACH ttBlockAcct WHERE NOT {assigned ttBlockAcct.error-code} NO-LOCK:
          CASE vInfoType:
              WHEN "РЕШЕНПРИОСТ" THEN
                  RUN TAXBlockAcct(hDataExch,
                                   BUFFER ttBlockAcct,
                                   vBlkType,
                                   vUserSel)
                  NO-ERROR.
              WHEN "РЕШЕНОТМЕНА" THEN
                  RUN TAXUnblockAcct(hDataExch,
                                     BUFFER ttBlockAcct)
                  NO-ERROR.
          END.
      END.
      IF {assigned vErrClass} AND
         CAN-FIND(FIRST ttBlockAcct WHERE NOT {assigned ttBlockAcct.error-code})
      THEN DO:
          mSuperPacketID = vPacketID.
          CASE vInfoType:
              WHEN {&INFO-TYPE-RPO} THEN DO:
                  RUN CreateBOSExch_RPO(hDataExch) NO-ERROR.
                  IF ERROR-STATUS:ERROR THEN DO:
                      ASSIGN
                          vErrCode = "35"
                          vErrText = RETURN-VALUE
                      .
                      RUN AddAttr2TableEx IN h_trans ("",
                                                      0,
                                                      -1,
                                                      "",
                                                      0,
                                                      "ReqType",
                                                      "").
                  END.
                  ELSE IF FGetSetting("Настройка_365П", "Подтв1", "Нет") NE "Откл" THEN
                         RUN TAXConfirmCreate(vPacketID, "10", "", NOW).
              END.
              WHEN {&INFO-TYPE-ROO} THEN DO:
                  IF FGetSetting("Настройка_365П", "Подтв1", "Нет") NE "Откл" THEN
                     RUN TAXConfirmCreate(vPacketID, "10", "", NOW).
              END.
          END.
      END.
   END.
   IF {assigned vErrClass} THEN DO:
      IF NOT {assigned vErrCode} OR vErrCode = "10" THEN
          RUN TAXBlockAcctError(TABLE ttBlockAcct,
                                OUTPUT vErrCode,
                                OUTPUT vErrText).
      IF {assigned vErrCode} AND vErrCode <> "10" THEN DO: