/*
               Банковская интегрированная система БИСквит
    Copyright: (C) 1992-2015 ЗАО "Банковские информационные системы"
     Filename: pp-pays.p
      Comment: Библиотека процедур обмена с платежными системами онлайн
   Parameters: нет
         Uses:
      Used BY:
      Created: 23.04.2015 KMBIS TT:0236973 Миграция.Прием платежей QIWI, Рапида, Уралсиб, КиберПлат
     Modified: 
*/
{pfuncdef
   &LIBDEF        = "YES"
   &NAME          = "pays"
   &LIBNAME       = "Онлайн обмен с платежными системами"
   &DESCRIPTION   = "Методы онлайн обмена"
}
{globals.i}
{exchange.equ}

&SCOP NO-BASE-PROC YES

DEF VAR mFileID  AS  INT64  NO-UNDO.

DEF TEMP-TABLE ttErrPay NO-UNDO
   FIELD PayRef    AS CHAR  /* Уникальный номер перевода в НКО */
   FIELD amt-rub   AS DEC   /* Сумма перевода                  */
   FIELD OrderAcct AS CHAR  /* Номер счета                     */
   FIELD PayErr    AS CHAR  /* Код причины возврата            */
.

{intrface.get kau}
{intrface.get card}
{intrface.get exch}
{intrface.get pack}
{intrface.get xrkc}
{intrface.get blkob}
{intrface.get count}
{intrface.get pbase}
{intrface.get refer}
{intrface.get rfrnc}
{intrface.get strng}
{intrface.get tmess}
{intrface.get trans}
{intrface.get xclass}

/* Процедура удаления документов */
{pck-op-del.pro}

{pays.fun}
{pays.pro}


/*===============================================================================================*/
/*=== Импорт онлайн запроса из КиберПлат ========================================================*/
{pfuncdef 
   &DEFPROC="CPlatOnlImport"
   &DESCRIPTION="Импорт онлайн запроса из КиберПлат"
   &PARAMETERS="Имя класса,указатель на объект"
   &RESULT="Результат операции"
}
PROCEDURE CPlatOnlImport:
   DEF INPUT PARAM iClass     AS  CHAR    NO-UNDO.
   DEF INPUT PARAM iInstance  AS  HANDLE  NO-UNDO.

DEF VAR vFlagSet   AS  LOG     NO-UNDO INIT ?.
DEF VAR vExch      AS  HANDLE  NO-UNDO.
DEF VAR vReq       AS  HANDLE  NO-UNDO. /* Указатель на таблицу с данными документа */                            

DEF BUFFER mail-user FOR mail-user.

MAIN:
DO ON ERROR UNDO MAIN, RETRY MAIN:
   {do-retry.i MAIN}

   &IF DEFINED(IS-DEBUG) &THEN
   RUN dbgprint.p ("CPlatOnlImport", "RUN").
   &ENDIF

   ASSIGN
      vExch = iInstance:DEFAULT-BUFFER-HANDLE
      vReq  = WIDGET-HANDLE(GetAttrValue2(GetBaseOpKind(),0,"CPlatHandle"))
   NO-ERROR. {&ON-ERROR}

   RUN InstanceCreateEx IN h_exch (?, vExch, 0).

   /*=== Заполняем недостающие поля в платеже ===*/
   ASSIGN
      /* Банк получателя     */
      vExch::bank-code-rec      = vReq::bank-code-rec
      vExch::bank-corr-acct-rec = vReq::bank-corr-acct-rec

      /* Транзитный счет     */
      vExch::acct-cr            = vReq::acct-cr    WHEN {assigned vReq::acct-cr}

      /* Данные получателя   */
      vExch::acct-rec           = vReq::acct-rec   

      /* Сумма к зачислению  */
      vExch::amt-rub            = vReq::amt-rub

      /* Отправитель платежа */

      /* Референс документа  */
      vExch::SendREF            = vReq::SendREF


      /* Сохраняем в первоначальной таблице данные импорта */
      vReq::SeanceID            = vExch::SeanceID
      vReq::SendREF             = SUBST("&1|&2", vExch::SendId, vExch::SendREF)

      /* Содержание операции  */
      vExch::details            = ParsDetails(vExch, vExch::details)

      /* Нумерация документов */
      vExch::doc-num            = SetCounterValue(vExch::CounterName, ?, gend-date)

      /* Запускаем маршрутизацию документа */
      vExch::op-kind            = GetEXCHOpKind(0, {&DIR-IMPORT}, BUFFER mail-user)
   NO-ERROR. {&ON-ERROR}



   &IF DEFINED(IS-DEBUG) &THEN
   RUN dbgprint.p ("CPlatOnlImport", SUBST("SeanceId: &1, SendRef: &2, op-kind: &3",
                                           vExch::SeanceID,
                                           vReq::SendREF,
                                           vExch::op-kind)).
   RUN dbgprint.p ("CPlatOnlImport", SUBST("RunTransaction(&1)", vExch::op-kind)).
   &ENDIF

   /* Создание документа */
   RUN RunTransaction IN h_pbase (vExch::op-kind) NO-ERROR. 
   /* Сохраняем op документа */
   vReq::OpId = vExch::op.

   &IF DEFINED(IS-DEBUG) &THEN
   RUN DumpObject IN h_exch(vExch).
   &ENDIF

   vFlagSet = YES.
   
   &IF DEFINED(IS-DEBUG) &THEN
   RUN dbgprint.p ("CPlatOnlImport", "Done").
   &ENDIF

END. /* MAIN: DO ON ERROR UNDO MAIN, RETRY MAIN: */

{doreturn.i vFlagSet}

END PROCEDURE. /* CPlatOnlImport */

/*===============================================================================================*/

/*===============================================================================================*/
/*=== Проверка на уникальность референса документа ==============================================*/
{pfuncdef 
   &DEFPROC="ChkOpRef"
   &DESCRIPTION="Проверка на уникальность референса документа"
   &PARAMETERS="Указатель на документ,список ошибок документа"
   &RESULT="Результат операции"
}
PROCEDURE ChkOpRef:
   DEF INPUT PARAM iWOP   AS HANDLE NO-UNDO.
   DEF INPUT PARAM iList  AS CHAR   NO-UNDO.

DEF VAR vFlagSet  AS  LOG     NO-UNDO INIT ?.
DEF VAR vSendREF  AS  CHAR    NO-UNDO.
DEF VAR vSendID   AS  CHAR    NO-UNDO.
DEF VAR vMailFmt  AS  CHAR    NO-UNDO.

DEF BUFFER bRef  FOR Reference.
DEF BUFFER bPack FOR packet.
DEF BUFFER bCode FOR code.

MAIN:
DO ON ERROR UNDO MAIN, LEAVE MAIN:
   {do-retry.i MAIN}

   &IF DEFINED(IS-DEBUG) &THEN
   RUN dbgprint.p ("ChkOpRef", "RUN").
   &ENDIF

   ASSIGN
      vSendREF = iWOP::SendREF
      vSendID  = iWOP::SendID
      vMailFmt = iWOP::mail-format
   NO-ERROR. {&NO-ERROR}

   IF EXCH-MSGBuff(vMailFmt, BUFFER bCode) NE YES THEN 
      UNDO MAIN, LEAVE MAIN.

   &IF DEFINED(IS-DEBUG) &THEN
   RUN dbgprint.p ("ChkOpRef", SUBST("vSendREF = &1; vSendID = &2; Op.op = &1; RefClass = &4", 
                                     vSendREF, 
                                     vSendID,
                                     STRING(iWOP::op),
                                     bCode.Misc[{&RKC-REPLY}])).
   &ENDIF

   /* Проверяем референс без учета дня */
   FOR FIRST bRef WHERE bRef.Class-Code  EQ bCode.Misc[{&RKC-REPLY}]
                    AND bRef.RefValue    EQ SUBST("&1|&2", vSendID, vSendREF)
                  NO-LOCK,
      FIRST bPack WHERE bPack.PacketID EQ bRef.PacketID
                  NO-LOCK:

      RUN AddErrorFormat IN h_exch (iWOP,iList).

      &IF DEFINED(IS-DEBUG) &THEN
      RUN dbgprint.p ("ChkOpRef", SUBST("PackDate: &1; PAckTime: &2",
                                        STRING(bPack.PackDate, "99/99/9999"),
                                        STRING(bPack.PackTime, "HH:MM:SS"))).
      &ENDIF

   END. /* FOR FIRST bRef WHERE bRef.Class-Code  EQ bCode.Misc[{&RKC-REPLY}] */

   vFlagSet = YES.
   &IF DEFINED(IS-DEBUG) &THEN
   RUN dbgprint.p ("ChkOpRef", "Done").
   &ENDIF

END. /* MAIN: DO ON ERROR UNDO MAIN, RETRY MAIN: */

{doreturn.i vFlagSet}

END PROCEDURE. /* ChkOpRef */

/*===============================================================================================*/

/*===============================================================================================*/
/*=== Инициализация при импорте строки из реестра ===============================================*/
{pfuncdef 
   &DEFPROC="CPlatReeIni"
   &DESCRIPTION="Инициализация при импорте строки из реестра"
   &PARAMETERS="Имя класса,указатель на объект"
   &RESULT="Результат операции"
}
PROCEDURE CPlatReeIni:
   DEF INPUT PARAM iClass AS  CHAR    NO-UNDO.
   DEF INPUT PARAM iExch  AS  HANDLE  NO-UNDO.

DEF VAR vFlagSet  AS  LOG   NO-UNDO INIT ?.
DEF VAR vFileName AS  CHAR  NO-UNDO. /* Имя загружаемого файла */
DEF VAR vSeanceId AS  INT64 NO-UNDO. /* Номер сеанса обмена    */
DEF VAR vOpKind   AS  CHAR  NO-UNDO.
DEF VAR vMsg      AS  CHAR  NO-UNDO.

DEF BUFFER bFileExch FOR FileExch.
DEF BUFFER bSeance   FOR Seance.

MAIN:
DO ON ERROR UNDO MAIN, RETRY MAIN:
   {do-retry.i MAIN}

   &IF DEFINED(IS-DEBUG) &THEN
   RUN dbgprint.p ("CPlatReeIni", "RUN").
   &ENDIF

   IF mFileID NE iExch::FileExchID THEN
   DO:
      /* Контроль на повторную загрузку */
      ASSIGN
         vOpKind   = iExch::op-kind
         mFileID   = INT64(iExch::FileExchID)
         vSeanceId = INT64(iExch::SeanceId)
      NO-ERROR. {&ON-ERROR}

      /* Ищем имя файла */
      FOR FIRST bFileExch WHERE bFileExch.FileExchID EQ mFileID 
                          NO-LOCK:
         vFileName = bFileExch.Name.
      END. /* FOR FIRST bFileExch WHERE bFileExch EQ mFileID  */

      IF {assigned vFileName} THEN
      DO:
         /* Проверяем не был ли загружен файл с тем же именем */
         FOR EACH bFileExch WHERE bFileExch.Name     EQ vFileName 
                              AND bFileExch.SeanceId NE vSeanceId
                            NO-LOCK,
            FIRST bSeance WHERE bSeance.SeanceId EQ bFileExch.SeanceId
                            AND bSeance.op-kind  EQ vOpKind
                          NO-LOCK:
            vMsg = SUBST("Файл '&1' уже загружен, номер сеанса обмена '&2' от '&3'",
                         vFileName,
                         bSeance.Number,
                         STRING(bSeance.SeanceDate,"99/99/9999")).
            RUN Fill-SysMes IN h_tmess("", "", "0", vMsg).
         END. /* FOR EACH bFileExch WHERE bFileExch.Name     EQ vFileName  */
      END. /* IF {assigned vFileName} THEN */
   END. /* IF mFileID NE iExch::FileExchID THEN */

   vFlagSet = YES.

   &IF DEFINED(IS-DEBUG) &THEN
   RUN dbgprint.p ("CPlatReeIni", "Done").
   &ENDIF
END. /* MAIN: DO ON ERROR UNDO MAIN, RETRY MAIN: */

{doreturn.i vFlagSet}

END PROCEDURE. /* CPlatReeIni */

/*===============================================================================================*/

/*===============================================================================================*/
/*=== Обработка строки итогового реестра ========================================================*/
{pfuncdef 
   &DEFPROC="CPlatReeImp"
   &DESCRIPTION="Обработка строки итогового реестра"
   &PARAMETERS="Имя класса,указатель на объект"
   &RESULT="Результат операции"
}
PROCEDURE CPlatReeImp:
   DEF INPUT PARAM iClass AS  CHAR    NO-UNDO.
   DEF INPUT PARAM iExch  AS  HANDLE  NO-UNDO.

DEF VAR vFlagSet   AS  LOG     NO-UNDO INIT ?.
DEF VAR vFlagPub   AS  LOG     NO-UNDO INIT NO.
DEF VAR vExchOp    AS  HANDLE  NO-UNDO. /* Указатель на транспортную форму документа из реестра */
DEF VAR vSendREF   AS  CHAR    NO-UNDO. /* Референс документа из реестра                        */
DEF VAR vOpDate    AS  DATE    NO-UNDO. /* Дата документа из реестра                            */
DEF VAR vSendID    AS  CHAR    NO-UNDO. /* Идентификатор отправителя из транзакции              */
DEF VAR vPackId    AS  INT64   NO-UNDO. /* Номер создаваемого пакета                            */
DEF VAR vFilialId  AS  CHAR    NO-UNDO. /* Код подразделения получателя платежа                 */
DEF VAR vCorr      AS  CHAR    NO-UNDO. /* Корр.счет банка получателя платежа                   */
DEF VAR vAcctCr    AS  CHAR    NO-UNDO. /* Транзитный счет межфилиальных рассчетов              */
DEF VAR vSaveFile  AS  LOG     NO-UNDO. /* Сохранять ли обрабатываемые строки                   */
DEF VAR vBuffer    AS  CHAR    NO-UNDO. /* Обрабатываемая строка из файла                       */
DEF VAR vOpKind    AS  CHAR    NO-UNDO. /* Код транзакции для зачисления                        */
DEF VAR vTmpStr    AS  CHAR    NO-UNDO.

DEF BUFFER bRef      FOR Reference.   
DEF BUFFER bPack     FOR packet.
DEF BUFFER bPackObj  FOR PackObject.
DEF BUFFER bOp       FOR op.
DEF BUFFER bPackInt  FOR packet.
DEF BUFFER bCode     FOR code.
DEF BUFFER bAcct     FOR acct.
DEF BUFFER mail-user FOR mail-user.

MAIN:
DO ON ERROR UNDO MAIN, RETRY MAIN:
   {do-retry.i MAIN}

   &IF DEFINED(IS-DEBUG) &THEN
   RUN dbgprint.p ("CPlatReeImp", "RUN").
   &ENDIF

   IF EXCH-MSGBuff(iClass, BUFFER bCode) NE YES THEN 
      UNDO MAIN, LEAVE MAIN.

   ASSIGN
      vTmpStr   = TRNSettingValue("","SaveFile","NO").
      vSaveFile = (vTmpStr EQ "Да") OR (vTmpStr EQ "YES")
   .

   IF vSaveFile THEN
   DO:
      /* Получим загруженную строку и сохраним ее на пакете */
      PUBLISH "I-POS-ONE-LINE" (OUTPUT vBuffer, OUTPUT vFlagPub).
      IF vFlagPub EQ YES THEN 
         RUN PacketTextSave IN h_pack(iExch::PacketID, vBuffer + "~n").

   END. /* IF vSaveFile THEN */

   IF GetSysConf("ErrorString") NE "NoError" THEN
   DO:
      IF NOT vSaveFile THEN 
         PUBLISH "I-POS-ONE-LINE" (OUTPUT vBuffer, OUTPUT vFlagPub).

      &IF DEFINED(IS-DEBUG) &THEN
      RUN dbgprint.p ("CPlatReeImp", SUBST("ERROR LINE '&1'", vBuffer)).
      &ENDIF
      IF NOT CAN-DO("ИТОГО: кол-во платежей * на сумму * руб.", vBuffer) THEN
         RUN Fill-SysMes IN h_tmess("", "", "0", SUBST("Строка не соответсвут формату: '&1'",
                                                       vBuffer)).

      vFlagSet = YES.
      LEAVE MAIN.
   END.

   &IF DEFINED(IS-DEBUG) &THEN
   RUN dbgprint.p ("CPlatReeImp", "ASSIGN VALUES").
   &ENDIF

   ASSIGN
      vOpKind              = TRIM(iExch::op-kind)
      iExch::DTPay         = TRIM(iExch::DTPay)
      iExch::number        = TRIM(SUBSTR(iExch::number, 1, 20))
      iExch::bank-code-rec = TRIM(iExch::bank-code-rec)
      iExch::abtype        = TRIM(iExch::abtype)
      iExch::amt-rub       = TRIM(iExch::amt-rub)
      iExch::receipt       = TRIM(iExch::receipt)
      iExch::SendID        = TRIM(iExch::SendID)
      vSendREF             = iExch::receipt
      vSendID              = iExch::SendID
      vTmpStr              = ENTRY(1, iExch::DTPay, "T")
      vTmpStr              = SUBST("&1/&2/&3",
                                   ENTRY(3, vTmpStr, "-"),
                                   ENTRY(2, vTmpStr, "-"),
                                   ENTRY(1, vTmpStr, "-"))
      vOpDate              = DATE(vTmpStr)
   NO-ERROR. {&NO-ERROR}

   RUN Fill-SysMes IN h_tmess("", "", "0", SUBST("Платеж номер '&1' от '&2'", 
                                                 vSendREF, 
                                                 STRING(vOpDate))).
   /* Ищем ранее загруженный документ */
   lOpOnlineFnd:
   FOR EACH bRef WHERE bRef.Class-Code  EQ bCode.Misc[{&RKC-REPLY}]
                   AND bRef.RefValue    EQ SUBST("&1|&2", vSendID, vSendREF)
                 NO-LOCK,
      FIRST bPack WHERE bPack.PacketID EQ bRef.PacketID
                  NO-LOCK,
      FIRST bPackObj WHERE bPackObj.PacketID  EQ bPack.PacketID
                       AND bPackObj.file-name EQ 'op-entry'
                     NO-LOCK,
      FIRST bOp WHERE bOp.op        EQ INT64(ENTRY(1, bPackObj.Surrogate))
                  AND bOp.op-date   EQ vOpDate
                  AND bOp.op-status GE "В"
                NO-LOCK:

      &IF DEFINED(IS-DEBUG) &THEN
      RUN dbgprint.p ("CPlatReeImp", SUBST("FIND op: &1; ref: &2",
                                           STRING(bOp.op),
                                           bRef.RefValue)).
      &ENDIF

      /* Связываем документ с нашим сеансом импорта */
      {pack-crt.i
         &Packet     = bPackInt
         &PacketID   = vPackId
         &SeanceID   = iExch::SeanceID
         &AbonentID  = -1
         &MailUserID = iExch::mail-user-num
         &State      = "{&STATE-CNF}"
         &Kind       = bCode.Misc[{&RKC-KIND}]
         &Format     = iClass
         &ClassCode  = bCode.Misc[{&RKC-CLASS}]
         &ParentID   = iExch::PacketID
      }

      RUN PacketCreateLink IN h_pack(vPackId,
                                     "op-entry",
                                     bPackObj.Surrogate,
                                     "ICyberRee").
      RUN Fill-SysMes IN h_tmess("", "", "0", SUBST("Найден в системе, op.op = &1", 
                                                    STRING(bOp.op))).
      LEAVE lOpOnlineFnd.
   END. /* FOR FIRST bRef WHERE bRef.Class-Code  EQ bCode.Misc[{&RKC-REPLY}] */

   &IF DEFINED(IS-DEBUG) &THEN
   RUN dbgprint.p ("CPlatReeImp", SUBST("FIND op: &1", STRING(vPackId GT 0))).
   &ENDIF

   IF vPackId LE 0 THEN
   DO:
      /* Документ не нашли, нужно создать */
      RUN Fill-SysMes IN h_tmess("", "", "0", "Не найден в системе").

      vExchOp = GetTransObject("EXCHCyber").
      IF NOT VALID-HANDLE(vExchOp) THEN
      DO:
         RUN Fill-SysMes IN h_tmess("", "", "-1", "Ошибка создания документа зачисления.").
         LEAVE MAIN.
      END.
      vExchOp = vExchOp:DEFAULT-BUFFER-HANDLE.

      /*=== Определяем данные подразделения получателя ===*/
      RUN CorrBranch IN THIS-PROCEDURE(iExch::bank-code-rec,
                                       "КиберПл",
                                       gend-date,
                                       OUTPUT vFilialId,
                                       OUTPUT vCorr,
                                       OUTPUT vAcctCr).

      IF {assigned vFilialId} THEN
      DO:
         /*=== Ищем счет получателя в базе ===*/
         {find-act.i &filial = vFilialId
                     &acct   = iExch::number
                     &curr   = "''"
                     &bact   = bAcct
                     &NoFindInNatCurr = YES}
      END. /* IF {assigned vFilialId} THEN */

      IF NOT AVAIL(bAcct) THEN
      DO:
         vTmpStr = SUBST("Счет '&1': не удалось установить получателя платежа.", iExch::number).
         RUN Fill-SysMes IN h_tmess("", "", "-1", vTmpStr).
         LEAVE MAIN.

      END. /* IF NOT AVAIL(bAcct) THEN */

      /* Задаем охватывающий пакет */
      vExchOp::PacketId = iExch::PacketID.
      RUN InstanceCreateEx IN h_exch(?, vExchOp, 0).

      &IF DEFINED(IS-DEBUG) &THEN
      RUN dbgprint.p ("CPlatReeImp", "ASSIGN VALUES new_op").
      &ENDIF

      /*=== Заполняем недостающие поля в платеже ===*/
      ASSIGN
         /* Банк получателя      */
         vExchOp::bank-code-rec      = iExch::bank-code-rec
         vExchOp::bank-corr-acct-rec = vCorr                 WHEN {assigned vAcctCr}

         /* Транзитный счет      */
         vExchOp::acct-cr            = vAcctCr               WHEN {assigned vAcctCr}

         /* Данные получателя    */
         vExchOp::acct-rec           = bAcct.acct
         vExchOp::acct-rec           = bAcct.number          WHEN {assigned vAcctCr}

         /* Сумма к зачислению   */
         vExchOp::amt-rub            = iExch::amt-rub

         /* Отправитель платежа  */


         /* Референс документа   */
         vExchOp::SendREF            = iExch::receipt

         /* Информация по обмену */
         vExchOp::SeanceID           = iExch::SeanceID
         vExchOp::mail-user-num      = iExch::mail-user-num

         /* Содержание операции  */
         vExchOp::details            = ParsDetails(vExchOp, vExchOp::details)

         /* Нумерация документов */
         vExchOp::doc-num            = SetCounterValue(vExchOp::CounterName, ?, gend-date)
      NO-ERROR. {&NO-ERROR}

      /*=== Проверка правильности присвоения счетчика ===*/
      IF NOT {assigned vExchOp::doc-num} THEN
      DO:
         RUN Fill-SysMes IN h_tmess("","","-1","Ошибка получения значения для счетчика документов").
         LEAVE MAIN.

      END. /* IF NOT {assigned iExch::doc-num} THEN */

      /*=== Маршрутизация документа ===*/
      vOpKind = GetEXCHOpKind(0, {&DIR-IMPORT}, BUFFER mail-user) NO-ERROR.
      IF    vExchOp::op-kind EQ vOpKind   /* Совпадает с текущей                     */
         OR ERROR-STATUS:ERROR          /* Возникли ошибки в функции маршрутизации */
         OR NOT {assigned vOpKind}      /* Код транзакции пуст                     */
      THEN
      DO:
    
         vTmpStr = "Не определена транзакция создания для платежа с номером '&1'".
         RUN Fill-SysMes IN h_tmess("","","-1",SUBST(vTmpStr, vExchOp::SendREF)).
         LEAVE MAIN.
      END. /* IF    iExch::op-kind EQ vOpKind */
      ELSE
         vExchOp::op-kind = vOpKind.


      /*=== Запускаем транзакцию зачисления ===*/
      &IF DEFINED(IS-DEBUG) &THEN
      RUN dbgprint.p ("USIBReeImpDT", SUBST("RunTransaction(&1)", iExch::op-kind)).
      &ENDIF
      &IF DEFINED(IS-DEBUG) &THEN
      RUN DumpObject IN h_exch(vExchOp).
      &ENDIF

      RUN RunTransaction IN h_pbase (vExchOp::op-kind) NO-ERROR. 

      &IF DEFINED(IS-DEBUG) &THEN
      RUN DumpObject IN h_exch(vExchOp).
      &ENDIF

      /*=== Проверка создания документа ===*/
      IF vExchOp::op EQ "0" THEN
      DO:
         vTmpStr = "Ошибка создания документа с номером '&1'".
         RUN Fill-SysMes IN h_tmess("","","-1",SUBST(vTmpStr, vExchOp::SendREF)).
         LEAVE MAIN.
      END. /* IF iExch::op EQ "0" THEN */

      RUN Fill-SysMes IN h_tmess("", "", "0", "Создан.").

   END. /* IF vPackId LE 0 THEN */

   RUN Fill-SysMes IN h_tmess("", "", "0", "").
   vFlagSet = YES.

   &IF DEFINED(IS-DEBUG) &THEN
   RUN dbgprint.p ("CPlatReeImp", "Done").
   &ENDIF

END. /* MAIN: DO ON ERROR UNDO MAIN, RETRY MAIN: */

IF vFlagSet NE YES THEN
DO:
   RUN Fill-SysMes IN h_tmess("","","-1", "").
   RUN Fill-SysMes IN h_tmess("","","-1", "ОШИБКА: Отмена импорта.").
   RUN Fill-SysMes IN h_tmess("","","-1", "").
END. /* IF vFlagSet NE YES THEN */

{doreturn.i vFlagSet}

END PROCEDURE. /* CPlatReeImp */

/*===============================================================================================*/

/*===============================================================================================*/
/*=== Подсчет зачисленных сумм по реестру =======================================================*/
{pfuncdef 
   &DEFPROC="CPlatReeCalc"
   &DESCRIPTION="Подсчет зачисленных сумм по реестру"
   &PARAMETERS="Имя класса,указатель на объект"
   &RESULT="Результат операции"
}
PROCEDURE CPlatReeCalc:
   DEF INPUT PARAM iClass AS  CHAR    NO-UNDO.
   DEF INPUT PARAM iExch  AS  HANDLE  NO-UNDO.

DEF VAR vFlagSet  AS  LOG   NO-UNDO INIT ?.
DEF VAR vCount    AS  INT64 NO-UNDO.         /* Количество созданных документов  */
DEF VAR vSum      AS  DEC   NO-UNDO.         /* Общая сумма созданных документов */
DEF VAR vIntFmt   AS  CHAR  NO-UNDO.         /* Выровненный по длинне формат     */
DEF VAR vSumFmt   AS  CHAR  NO-UNDO.         /* Выровненный по длинне формат     */

DEF BUFFER bPacket   FOR Packet.
DEF BUFFER bPackObj  FOR PackObject.
DEF BUFFER bOpEntry  FOR op-entry.
DEF BUFFER bCode     FOR code.

MAIN:
DO ON ERROR UNDO MAIN, RETRY MAIN:
   {do-retry.i MAIN}

   &IF DEFINED(IS-DEBUG) &THEN
   RUN dbgprint.p ("CPlatReeCalc", "RUN").
   &ENDIF

   IF EXCH-MSGBuff(iClass, BUFFER bCode) NE YES THEN 
      UNDO MAIN, LEAVE MAIN.

   /*=== Считаем сумму созданных документов ===*/
   FOR EACH bPacket WHERE bPacket.ParentID   EQ INT64(iExch::PacketID)
                    NO-LOCK,
      EACH bPackObj WHERE bPackObj.PacketID  EQ bPacket.PacketID
                      AND bPackObj.file-name EQ 'op-entry'
                     NO-LOCK,
      FIRST bOpEntry WHERE bOpEntry.op        EQ INT64(ENTRY(1, bPackObj.Surrogate))
                       AND bOpEntry.op-entry  GE INT64(ENTRY(2, bPackObj.Surrogate))
                       AND bOpEntry.op-status GE "В"
                     NO-LOCK:
      ASSIGN
         vSum   = vSum   + bOpEntry.amt-rub
         vCount = vCount + 1
      .
   END. /* FOR EACH bPacket WHERE bPacket.ParentID EQ INT64(iExch::PacketID) */

   &IF DEFINED(IS-DEBUG) &THEN
   RUN dbgprint.p ("CPlatReeCalc", SUBST("Reestr: &3, &4",
                                         STRING(vCount),
                                         STRING(vSum))).
   &ENDIF

   ASSIGN
      vIntFmt = IntFmt(vCount, 0)
      vSumFmt = DecFmt(vSum,   0)
   .

   RUN Fill-SysMes IN h_tmess("","","0","").
   RUN Fill-SysMes IN h_tmess("","","0",SUBST("Всего по реестру платежей: &1 на сумму &2",
                                              STRING(vCount, vIntFmt),
                                              STRING(vSum,   vSumFmt))).
   RUN Fill-SysMes IN h_tmess("","","0","").

   /* Сохраняем сумму по реестру */
   vFlagSet = UpdateSigns(bCode.Misc[{&RKC-CLASS}], iExch::PacketID, "SummAmt", STRING(vSum), ?).

   &IF DEFINED(IS-DEBUG) &THEN
   RUN dbgprint.p ("CPlatReeCalc", "Done").
   &ENDIF
END. /* MAIN: DO ON ERROR UNDO MAIN, RETRY MAIN: */

{doreturn.i vFlagSet}

END PROCEDURE. /* CPlatReeCalc */

/*===============================================================================================*/

/*===============================================================================================*/
/*=== Импорт строк реестра Уралсиба =============================================================*/
{pfuncdef 
   &DEFPROC="USIBReeImpDT"
   &DESCRIPTION="Импорт строк реестра Уралсиба"
   &PARAMETERS="Имя класса,указатель на объект"
   &RESULT="Результат операции"
}
PROCEDURE USIBReeImpDT:
   DEF INPUT PARAM iClass AS  CHAR    NO-UNDO.
   DEF INPUT PARAM iExch  AS  HANDLE  NO-UNDO.

DEF VAR vFlagSet  AS  LOG   NO-UNDO INIT ?.
DEF VAR vBicMask  AS  CHAR  NO-UNDO.  /* Маска допустимых БИК                                    */
DEF VAR vAcctMask AS  CHAR  NO-UNDO.  /* Маска доступных счетов                                  */
DEF VAR vFilialId AS  CHAR  NO-UNDO.  /* Код подразделения получателя платежа                    */
DEF VAR vCorr     AS  CHAR  NO-UNDO.  /* Корр.счет банка получателя платежа                      */
DEF VAR vAcctCr   AS  CHAR  NO-UNDO.  /* Транзитный счет межфилиальных рассчетов                 */
DEF VAR vOpKind   AS  CHAR  NO-UNDO.  /* Код транзакции для зачисления                           */
DEF VAR vTmpStr   AS  CHAR  NO-UNDO.

DEF BUFFER bAcct     FOR acct.
DEF BUFFER bCode     FOR Code.
DEF BUFFER mail-user FOR mail-user.

MAIN:
DO ON ERROR UNDO MAIN, RETRY MAIN:
   {do-retry.i MAIN}

   &IF DEFINED(IS-DEBUG) &THEN
   RUN dbgprint.p ("USIBReeImpDT", "RUN").
   &ENDIF

   IF EXCH-MSGBuff(iExch::mail-format, BUFFER bCode) NE YES THEN
      UNDO MAIN, LEAVE MAIN.

   &IF DEFINED(IS-DEBUG) &THEN
   RUN dbgprint.p ("USIBReeImpDT", "ASSIGN VALUES").
   &ENDIF

   /*=== Инициализация переменных ===*/
   ASSIGN
      vOpKind              = TRIM(iExch::op-kind)
      iExch::SendREF       = TRIM(iExch::SendREF)
      iExch::OrderDate     = TRIM(iExch::OrderDate)
      iExch::Amt           = TRIM(iExch::Amt)
      iExch::AmtCom        = TRIM(iExch::AmtCom)
      iExch::OrderAcct     = TRIM(iExch::OrderAcct)
      iExch::bank-code-rec = TRIM(iExch::bank-code-rec)
      iExch::name-rec      = TRIM(iExch::name-rec) 
      iExch::name-send     = TRIM(iExch::name-send)
      iExch::name-rec      = DelDoubleChars(iExch::name-rec,  " ")
      iExch::name-send     = DelDoubleChars(iExch::name-send, " ")
      iExch::tel-send      = TRIM(iExch::tel-send)
      iExch::name-send     = TRIM(iExch::name-send)

      /* Маска допустимых счетов для пополнения  */
      vAcctMask            = TRNSettingValue("","AcctMask","!*")

      /* Маска допустимых БИК банков получателей */
      vBicMask             = TRNSettingValue("","BICMask","!*")
   NO-ERROR. {&NO-ERROR}

   &IF DEFINED(IS-DEBUG) &THEN
   RUN dbgprint.p ("USIBReeImpDT", SUBST("SendREF = &1; SendID = &2; RefClass = &3",
                                         iExch::SendRef, 
                                         iExch::SendId,
                                         bCode.Misc[{&RKC-REPLY}])).
   &ENDIF

   /*=== Проверка повторной загрузки платежа ===*/
   IF NOT {assigned iExch::SendREF} THEN 
   DO:
      RUN Fill-SysMes IN h_tmess("","","-1", "В реестре есть платежи без уникального номера.").
      LEAVE MAIN.
   END. /* IF NOT {assigned iExch::SendREF} THEN  */

   IF FndRef(bCode.Misc[{&RKC-REPLY}], 
             SUBST("&1|&2", iExch::SendId, iExch::SendREF),
             OUTPUT vTmpStr)
   THEN
   DO:
      RUN Fill-SysMes IN h_tmess("","","-1",
                                 SUBST("Документ уже загружен, уникальный номер: '&1'", 
                                       iExch::SendREF)).
      IF {assigned vTmpStr} THEN
         RUN Fill-SysMes IN h_tmess("","","-1", vTmpStr).
      &IF DEFINED(IS-DEBUG) &THEN
      RUN dbgprint.p ("USIBReeImpDT", SUBST("Платеж уже загружен. &1",
                                            vTmpStr)).
      &ENDIF
      LEAVE MAIN.
   END.

   &IF DEFINED(IS-DEBUG) &THEN
   RUN dbgprint.p ("USIBReeImpDT", SUBST("BIC = &1; BicMask = &2", 
                                         iExch::bank-code-rec, 
                                         vBicMask)).
   RUN dbgprint.p ("USIBReeImpDT", SUBST("Acct = &1; AcctMask = &2", 
                                         iExch::OrderAcct, 
                                         vAcctMask)).
   &ENDIF

   /*=== Проверка БИК банка получателя ===*/
   IF NOT (CAN-DO(vBicMask, iExch::bank-code-rec) AND {assigned iExch::bank-code-rec}) THEN
   DO:
      vTmpStr = SUBST("БИК &1 для счета '&2' не соответствует маске БИК банков получателей.", 
                      iExch::bank-code-rec,
                      iExch::OrderAcct).
      RUN Fill-SysMes IN h_tmess("", "", "-1", vTmpStr).
      LEAVE MAIN.
   END.

   /*=== Проверка счета получателя ===*/
   IF NOT (CAN-DO(vAcctMask, iExch::OrderAcct) AND {assigned iExch::OrderAcct}) THEN
   DO:
      vTmpStr = SUBST("Счет '&1' не соответствует маске допустимых счетов.", iExch::OrderAcct).
      RUN Fill-SysMes IN h_tmess("", "", "-1", vTmpStr).
      LEAVE MAIN.
   END.

   /*=== Определяем данные подразделения получателя ===*/
   RUN CorrBranch IN THIS-PROCEDURE(iExch::bank-code-rec,
                                    "УсибПл",
                                    gend-date,
                                    OUTPUT vFilialId,
                                    OUTPUT vCorr,
                                    OUTPUT vAcctCr).

   IF {assigned vFilialId} THEN
   DO:
      /*=== Ищем счет получателя в базе ===*/
      {find-act.i &filial = vFilialId
                  &acct   = iExch::OrderAcct
                  &curr   = "''"
                  &bact   = bAcct
                  &NoFindInNatCurr = YES}
   END. /* IF {assigned vFilialId} THEN */

   &IF DEFINED(IS-DEBUG) &THEN
   vTmpStr = IF AVAIL(bAcct) THEN bAcct.acct